 00/00/01                      100.0  0    0 0                                                                                                                                                                                                                                                             
BUS DATA FOLLOWS                   57 ITEMS
   1 bus-1   100   1  1  3 1.04  0.     55.      17.       478.6637128.8496 100.    1.04   999900 -99990    0.      0.        0                                                                                                                                                                            
   2 bus-2   100   1  1  2 1.01  -1.188 3.       88.       0.      -0.75498 100.    1.01    50.   -17.      0.      0.        0                                                                                                                                                                            
   3 bus-3   100   1  1  2 0.985 -5.988 41.      21.       40.     -0.9049  100.    .98500  60.   -10.      0.      0.        0                                                                                                                                                                            
   4 bus-4   100   1  1    0.98  -7.337 0.       0.        0.      0.       100.    1.       0.     0.      0.      0.        0                                                                                                                                                                            
   5 bus-5   100   1  1    0.976 -8.546 13.      4.        0.      0.       100.    1.       0.     0.      0.      0.        0                                                                                                                                                                            
   6 bus-6   100   1  1  2 0.98  -8.674 75.      2.        0.      0.871401 100.    .98000  25.    -8.      0.      0.        0                                                                                                                                                                            
   7 bus-7   100   1  1    0.984 -7.601 0.       0.        0.      0.       100.    1.       0.     0.      0.      0.        0                                                                                                                                                                            
   8 bus-8   100   1  1  2 1.005 -4.477 150.     22.       450.    62.0996  100.    1.005  200.   -140.     0.      0.        0                                                                                                                                                                            
   9 bus-9   100   1  1  2 0.98  -9.584 121.     26.       0.      2.288375 100.    .98000   9.    -3.      0.      0.        0                                                                                                                                                                            
  10 bus-10  100   1  1    0.986 -11.44 5.       2.        0.      0.       100.    1.       0.     0.      0.      0.        0                                                                                                                                                                            
  11 bus-11  100   1  1    0.974 -10.19 0.       0.        0.      0.       100.    1.       0.     0.      0.      0.        0                                                                                                                                                                            
  12 bus-12  100   1  1  2 1.015 -10.47 377.     24.       310.    128.6308 100.    1.015  155.   -150.     0.      0.        0                                                                                                                                                                            
  13 bus-13  100   1  1    0.978 -9.803 18.      2.3       0.      0.       100.    1.       0.     0.      0.      0.        0                                                                                                                                                                            
  14 bus-14  100   1  1    0.97  -9.35  10.5     5.3       0.      0.       100.    1.       0.     0.      0.      0.        0                                                                                                                                                                            
  15 bus-15  100   1  1    0.988 -7.19  22.      5.        0.      0.       100.    1.       0.     0.      0.      0.        0                                                                                                                                                                            
  16 bus-16  100   1  1    1.013 -8.858 43.      3.        0.      0.       100.    1.       0.     0.      0.      0.        0                                                                                                                                                                            
  17 bus-17  100   1  1    1.017 -5.395 42.      8.        0.      0.       100.    1.       0.     0.      0.      0.        0                                                                                                                                                                            
  18 bus-18  100   1  1    1.    -11.72 27.2     9.8       0.      0.       100.    1.       0.     0.      0.      0.1       0                                                                                                                                                                            
  19 bus-19  100   1  1    0.97  -13.22 3.3      0.6       0.      0.       100.    1.       0.     0.      0.      0.        0                                                                                                                                                                            
  20 bus-20  100   1  1    0.963 -13.44 2.3      1.        0.      0.       100.    1.       0.     0.      0.      0.        0                                                                                                                                                                            
  21 bus-21  100   1  1    1.008 -12.92 0.       0.        0.      0.       100.    1.       0.     0.      0.      0.        0                                                                                                                                                                            
  22 bus-22  100   1  1    1.009 -12.87 0.       0.        0.      0.       100.    1.       0.     0.      0.      0.        0                                                                                                                                                                            
  23 bus-23  100   1  1    1.008 -12.93 6.3      2.1       0.      0.       100.    1.       0.     0.      0.      0.        0                                                                                                                                                                            
  24 bus-24  100   1  1    0.999 -13.29 0.       0.        0.      0.       100.    1.       0.     0.      0.      0.        0                                                                                                                                                                            
  25 bus-25  100   1  1    0.982 -18.17 6.3      3.2       0.      0.       100.    1.       0.     0.      0.      0.059     0                                                                                                                                                                            
  26 bus-26  100   1  1    0.958 -12.98 0.       0.        0.      0.       100.    1.       0.     0.      0.      0.        0                                                                                                                                                                            
  27 bus-27  100   1  1    0.981 -11.51 9.3      0.5       0.      0.       100.    1.       0.     0.      0.      0.        0                                                                                                                                                                            
  28 bus-28  100   1  1    0.996 -10.48 4.6      2.3       0.      0.       100.    1.       0.     0.      0.      0.        0                                                                                                                                                                            
  29 bus-29  100   1  1    1.01  -9.771 17.      2.6       0.      0.       100.    1.       0.     0.      0.      0.        0                                                                                                                                                                            
  30 bus-30  100   1  1    0.962 -18.71 3.6      1.8       0.      0.       100.    1.       0.     0.      0.      0.        0                                                                                                                                                                            
  31 bus-31  100   1  1    0.935 -19.38 5.8      2.9       0.      0.       100.    1.       0.     0.      0.      0.        0                                                                                                                                                                            
  32 bus-32  100   1  1    0.949 -18.51 1.6      0.8       0.      0.       100.    1.       0.     0.      0.      0.        0                                                                                                                                                                            
  33 bus-33  100   1  1    0.947 -18.55 3.8      1.9       0.      0.       100.    1.       0.     0.      0.      0.        0                                                                                                                                                                            
  34 bus-34  100   1  1    0.959 -14.14 0.       0.        0.      0.       100.    1.       0.     0.      0.      0.        0                                                                                                                                                                            
  35 bus-35  100   1  1    0.966 -13.9  6.       3.        0.      0.       100.    1.       0.     0.      0.      0.        0                                                                                                                                                                            
  36 bus-36  100   1  1    0.975 -13.63 0.       0.        0.      0.       100.    1.       0.     0.      0.      0.        0                                                                                                                                                                            
  37 bus-37  100   1  1    0.984 -13.44 0.       0.        0.      0.       100.    1.       0.     0.      0.      0.        0                                                                                                                                                                            
  38 bus-38  100   1  1    1.012 -12.73 14.      7.        0.      0.       100.    1.       0.     0.      0.      0.        0                                                                                                                                                                            
  39 bus-39  100   1  1    0.982 -13.49 0.       0.        0.      0.       100.    1.       0.     0.      0.      0.        0                                                                                                                                                                            
  40 bus-40  100   1  1    0.972 -13.65 0.       0.        0.      0.       100.    1.       0.     0.      0.      0.        0                                                                                                                                                                            
  41 bus-41  100   1  1    0.996 -14.07 6.3      3.        0.      0.       100.    1.       0.     0.      0.      0.        0                                                                                                                                                                            
  42 bus-42  100   1  1    0.966 -15.53 7.1      4.4       0.      0.       100.    1.       0.     0.      0.      0.        0                                                                                                                                                                            
  43 bus-43  100   1  1    1.009 -11.35 2.       1.        0.      0.       100.    1.       0.     0.      0.      0.        0                                                                                                                                                                            
  44 bus-44  100   1  1    1.016 -11.85 12.      1.8       0.      0.       100.    1.       0.     0.      0.      0.        0                                                                                                                                                                            
  45 bus-45  100   1  1    1.036 -9.27  0.       0.        0.      0.       100.    1.       0.     0.      0.      0.        0                                                                                                                                                                            
  46 bus-46  100   1  1    1.059 -11.11 0.       0.        0.      0.       100.    1.       0.     0.      0.      0.        0                                                                                                                                                                            
  47 bus-47  100   1  1    1.033 -12.51 29.7     11.6      0.      0.       100.    1.       0.     0.      0.      0.        0                                                                                                                                                                            
  48 bus-48  100   1  1    1.027 -12.61 0.       0.        0.      0.       100.    1.       0.     0.      0.      0.        0                                                                                                                                                                            
  49 bus-49  100   1  1    1.036 -12.93 18.      8.5       0.      0.       100.    1.       0.     0.      0.      0.        0                                                                                                                                                                            
  50 bus-50  100   1  1    1.023 -13.41 21.      10.5      0.      0.       100.    1.       0.     0.      0.      0.        0                                                                                                                                                                            
  51 bus-51  100   1  1    1.052 -12.53 18.      5.3       0.      0.       100.    1.       0.     0.      0.      0.        0                                                                                                                                                                            
  52 bus-52  100   1  1    0.98  -11.49 4.9      2.2       0.      0.       100.    1.       0.     0.      0.      0.        0                                                                                                                                                                            
  53 bus-53  100   1  1    0.97  -12.25 20.      10.       0.      0.       100.    1.       0.     0.      0.      0.063     0                                                                                                                                                                            
  54 bus-54  100   1  1    0.996 -11.7  4.1      1.4       0.      0.       100.    1.       0.     0.      0.      0.        0                                                                                                                                                                            
  55 bus-55  100   1  1    1.03  -10.8  6.8      3.4       0.      0.       100.    1.       0.     0.      0.      0.        0                                                                                                                                                                            
  56 bus-56  100   1  1    0.968 -16.06 7.6      2.2       0.      0.       100.    1.       0.     0.      0.      0.        0                                                                                                                                                                            
  57 bus-57  100   1  1    0.964 -16.58 6.7      2.        0.      0.       100.    1.       0.     0.      0.      0.        0                                                                                                                                                                            
-999
BRANCH DATA FOLLOWS                   80 ITEMS
   2    1  1  1      0.0083    0.028       0.129  0    0     0      0    0  0      0      0      0       0      0      0                                                                                                                                                                                   
   3    2  1  1      0.0298    0.085       0.0818 0    0     0      0    0  0      0      0      0       0      0      0                                                                                                                                                                                   
   4    3  1  1      0.0112    0.0366      0.038  0    0     0      0    0  0      0      0      0       0      0      0                                                                                                                                                                                   
   5    4  1  1      0.0625    0.132       0.0258 0    0     0      0    0  0      0      0      0       0      0      0                                                                                                                                                                                   
   6    4  1  1      0.043     0.148       0.0348 0    0     0      0    0  0      0      0      0       0      0      0                                                                                                                                                                                   
   7    6  1  1      0.02      0.102       0.0276 0    0     0      0    0  0      0      0      0       0      0      0                                                                                                                                                                                   
   8    6  1  1      0.0339    0.173       0.047  0    0     0      0    0  0      0      0      0       0      0      0                                                                                                                                                                                   
   9    8  1  1      0.0099    0.0505      0.0548 0    0     0      0    0  0      0      0      0       0      0      0                                                                                                                                                                                   
  10    9  1  1      0.0369    0.1679      0.044  0    0     0      0    0  0      0      0      0       0      0      0                                                                                                                                                                                   
  11    9  1  1      0.0258    0.0848      0.0218 0    0     0      0    0  0      0      0      0       0      0      0                                                                                                                                                                                   
  12    9  1  1      0.0648    0.295       0.0772 0    0     0      0    0  0      0      0      0       0      0      0                                                                                                                                                                                   
  13    9  1  1      0.0481    0.158       0.0406 0    0     0      0    0  0      0      0      0       0      0      0                                                                                                                                                                                   
  14   13  1  1      0.0132    0.0434      0.011  0    0     0      0    0  0      0      0      0       0      0      0                                                                                                                                                                                   
  15   13  1  1      0.0269    0.0869      0.023  0    0     0      0    0  0      0      0      0       0      0      0                                                                                                                                                                                   
  15    1  1  1      0.0178    0.091       0.0988 0    0     0      0    0  0      0      0      0       0      0      0                                                                                                                                                                                   
  16    1  1  1      0.0454    0.206       0.0546 0    0     0      0    0  0      0      0      0       0      0      0                                                                                                                                                                                   
  17    1  1  1      0.0238    0.108       0.0286 0    0     0      0    0  0      0      0      0       0      0      0                                                                                                                                                                                   
  15    3  1  1      0.0162    0.053       0.0544 0    0     0      0    0  0      0      0      0       0      0      0                                                                                                                                                                                   
   4   18  1  1   2  0.        0.555       0.     0    0     0      0    0  0.97   0      0      0       0      0      0                                                                                                                                                                                   
   4   18  1  1 A 2  0.        0.43        0.     0    0     0      0    0  0.978  0      0      0       0      0      0                                                                                                                                                                                   
   6    5  1  1      0.0302    0.0641      0.0124 0    0     0      0    0  0      0      0      0       0      0      0                                                                                                                                                                                   
   8    7  1  1      0.0139    0.0712      0.0194 0    0     0      0    0  0      0      0      0       0      0      0                                                                                                                                                                                   
  12   10  1  1      0.0277    0.1262      0.0328 0    0     0      0    0  0      0      0      0       0      0      0                                                                                                                                                                                   
  13   11  1  1      0.0223    0.0732      0.0188 0    0     0      0    0  0      0      0      0       0      0      0                                                                                                                                                                                   
  13   12  1  1      0.0178    0.058       0.0604 0    0     0      0    0  0      0      0      0       0      0      0                                                                                                                                                                                   
  16   12  1  1      0.018     0.0813      0.0216 0    0     0      0    0  0      0      0      0       0      0      0                                                                                                                                                                                   
  17   12  1  1      0.0397    0.179       0.0476 0    0     0      0    0  0      0      0      0       0      0      0                                                                                                                                                                                   
  15   14  1  1      0.0171    0.0547      0.0148 0    0     0      0    0  0      0      0      0       0      0      0                                                                                                                                                                                   
  19   18  1  1      0.461     0.685       0.     0    0     0      0    0  0      0      0      0       0      0      0                                                                                                                                                                                   
  20   19  1  1      0.283     0.434       0.     0    0     0      0    0  0      0      0      0       0      0      0                                                                                                                                                                                   
  21   20  1  1   2  0.        0.7767      0.     0    0     0      0    0  1.043  0      0      0       0      0      0                                                                                                                                                                                   
  22   21  1  1      0.0736    0.117       0.     0    0     0      0    0  0      0      0      0       0      0      0                                                                                                                                                                                   
  23   22  1  1      0.0099    0.0152      0.     0    0     0      0    0  0      0      0      0       0      0      0                                                                                                                                                                                   
  24   23  1  1      0.166     0.256       0.0084 0    0     0      0    0  0      0      0      0       0      0      0                                                                                                                                                                                   
  24   25  1  1   2  0.        1.182       0.     0    0     0      0    0  1.     0      0      0       0      0      0                                                                                                                                                                                   
  24   25  1  1 A 2  0.        1.23        0.     0    0     0      0    0  1.     0      0      0       0      0      0                                                                                                                                                                                   
  24   26  1  1   2  0.        0.0473      0.     0    0     0      0    0  1.043  0      0      0       0      0      0                                                                                                                                                                                   
  27   26  1  1      0.165     0.254       0.     0    0     0      0    0  0      0      0      0       0      0      0                                                                                                                                                                                   
  28   27  1  1      0.0618    0.0954      0.     0    0     0      0    0  0      0      0      0       0      0      0                                                                                                                                                                                   
  29   28  1  1      0.0418    0.0587      0.     0    0     0      0    0  0      0      0      0       0      0      0                                                                                                                                                                                   
   7   29  1  1   2  0.        0.0648      0.     0    0     0      0    0  0.967  0      0      0       0      0      0                                                                                                                                                                                   