 00/00/01                      100.0  0    0 0                                                                                                                                                                                                                                                             
BUS DATA FOLLOWS                  145 ITEMS
   1 bus-1   100   1  1    1.082 -5.442 0.       0.        0.      0.       100.    1.       0.     0.      0.      0.        0                                                                                                                                                                            
   2 bus-2   100   1  1    1.082 -5.509 0.       0.        0.      0.       100.    1.       0.     0.      0.      0.        0                                                                                                                                                                            
   3 bus-3   100   1  1    1.102 -5.14  0.       0.        0.      0.       100.    1.       0.     0.      0.     -1.26      0                                                                                                                                                                            
   4 bus-4   100   1  1    1.102 -5.14  0.       0.        0.      0.       100.    1.       0.     0.      0.     -1.26      0                                                                                                                                                                            
   5 bus-5   100   1  1    1.103 -5.14  0.       0.        0.      0.       100.    1.       0.     0.      0.     -1.26      0                                                                                                                                                                            
   6 bus-6   100   1  1    1.048 -8.959 0.       0.        0.      0.       100.    1.       0.     0.      0.      0.        0                                                                                                                                                                            
   7 bus-7   100   1  1    1.096 1.8476 0.       0.        0.      0.       100.    1.       0.     0.      0.      0.        0                                                                                                                                                                            
   8 bus-8   100   1  1    1.119 -0.094 0.       0.        0.      0.       100.    1.       0.     0.      0.      0.        0                                                                                                                                                                            
   9 bus-9   100   1  1    1.044 -9.173 0.       0.        0.      0.       100.    1.       0.     0.      0.      0.        0                                                                                                                                                                            
  10 bus-10  100   1  1    1.044 -9.173 0.       0.        0.      0.       100.    1.       0.     0.      0.      0.        0                                                                                                                                                                            
  11 bus-11  100   1  1    1.097 -11.76 0.       0.        0.      0.       100.    1.       0.     0.      0.      0.        0                                                                                                                                                                            
  12 bus-12  100   1  1    1.043 -9.886 0.       0.        0.      0.       100.    1.       0.     0.      0.      0.        0                                                                                                                                                                            
  13 bus-13  100   1  1    1.102 -12.54 0.       0.        0.      0.       100.    1.       0.     0.      0.      0.        0                                                                                                                                                                            
  14 bus-14  100   1  1    1.042 -10.29 0.       0.        0.      0.       100.    1.       0.     0.      0.      0.        0                                                                                                                                                                            
  15 bus-15  100   1  1    1.072 -10.92 0.       0.        0.      0.       100.    1.       0.     0.      0.     -1.26      0                                                                                                                                                                            
  16 bus-16  100   1  1    1.072 -10.97 0.       0.        0.      0.       100.    1.       0.     0.      0.     -1.26      0                                                                                                                                                                            
  17 bus-17  100   1  1    1.004 -10.55 0.       0.        0.      0.       100.    1.       0.     0.      0.     -2.5       0                                                                                                                                                                            
  18 bus-18  100   1  1    1.077 -11.99 0.       0.        0.      0.       100.    1.       0.     0.      0.     -1.26      0                                                                                                                                                                            
  19 bus-19  100   1  1    1.073 -12.07 0.       0.        0.      0.       100.    1.       0.     0.      0.     -0.58      0                                                                                                                                                                            
  20 bus-20  100   1  1    1.115 -12.06 0.       0.        0.      0.       100.    1.       0.     0.      0.      0.        0                                                                                                                                                                            
  21 bus-21  100   1  1    1.111 -12.35 0.       0.        0.      0.       100.    1.       0.     0.      0.      0.        0                                                                                                                                                                            
  22 bus-22  100   1  1    1.032 -5.009 0.       0.        0.      0.       100.    1.       0.     0.      0.      0.        0                                                                                                                                                                            
  23 bus-23  100   1  1    1.099 -6.636 0.       0.        0.      0.       100.    1.       0.     0.      0.      0.        0                                                                                                                                                                            
  24 bus-24  100   1  1    1.028 1.1764 0.       0.        0.      0.       100.    1.       0.     0.      0.      0.        0                                                                                                                                                                            
  25 bus-25  100   1  1    1.042 -10.98 0.       0.        0.      0.       100.    1.       0.     0.      0.      0.        0                                                                                                                                                                            
  26 bus-26  100   1  1    1.091 -12.5  0.       0.        0.      0.       100.    1.       0.     0.      0.      0.        0                                                                                                                                                                            
  27 bus-27  100   1  1    1.042 -14.15 0.       0.        0.      0.       100.    1.       0.     0.      0.      0.        0                                                                                                                                                                            
  28 bus-28  100   1  1    1.079 -16.33 0.       0.        0.      0.       100.    1.       0.     0.      0.     -1.26      0                                                                                                                                                                            
  29 bus-29  100   1  1    1.077 -16.49 0.       0.        0.      0.       100.    1.       0.     0.      0.     -1.26      0                                                                                                                                                                            
  30 bus-30  100   1  1    1.075 -6.469 0.       0.        0.      0.       100.    1.       0.     0.      0.      0.        0                                                                                                                                                                            
  31 bus-31  100   1  1    1.092 -12.93 0.       0.        0.      0.       100.    1.       0.     0.      0.      0.        0                                                                                                                                                                            
  32 bus-32  100   1  1    1.097 -11.77 0.       0.        0.      0.       100.    1.       0.     0.      0.      0.        0                                                                                                                                                                            
  33 bus-33  100   1  1    1.14  -5.178 0.       0.        0.      0.       100.    1.       0.     0.      0.      0.        0                                                                                                                                                                            
  34 bus-34  100   1  1    1.14  -5.119 45.05    46.56     0.      0.       100.    1.       0.     0.      0.      0.        0                                                                                                                                                                            
  35 bus-35  100   1  1    1.14  -5.197 49.19    27.53     0.      0.       100.    1.       0.     0.      0.      0.        0                                                                                                                                                                            
  36 bus-36  100   1  1    1.139 -4.932 0.       0.        0.      0.       100.    1.       0.     0.      0.      0.        0                                                                                                                                                                            
  37 bus-37  100   1  1    1.125 -7.345 0.       0.        0.      0.       100.    1.       0.     0.      0.      0.        0                                                                                                                                                                            
  38 bus-38  100   1  1    1.132 -6.407 0.       0.        0.      0.       100.    1.       0.     0.      0.      0.        0                                                                                                                                                                            
  39 bus-39  100   1  1    1.129 -9.008 0.       0.        0.      0.       100.    1.       0.     0.      0.      0.        0                                                                                                                                                                            
  40 bus-40  100   1  1    1.129 -9.012 0.       0.        0.      0.       100.    1.       0.     0.      0.      0.        0                                                                                                                                                                            
  41 bus-41  100   1  1    1.121 -11.5  0.       0.        0.      0.       100.    1.       0.     0.      0.54   -0.1       0                                                                                                                                                                            
  42 bus-42  100   1  1    1.121 -11.51 0.       0.        0.      0.       100.    1.       0.     0.      0.548  -0.1       0                                                                                                                                                                            
  43 bus-43  100   1  1    1.121 -11.47 0.       0.        0.      0.       100.    1.       0.     0.      0.      0.        0                                                                                                                                                                            
  44 bus-44  100   1  1    1.121 -11.49 0.       0.        0.      0.       100.    1.       0.     0.      0.      0.        0                                                                                                                                                                            
  45 bus-45  100   1  1    1.12  -12.46 0.       0.        0.      0.       100.    1.       0.     0.      0.      0.        0                                                                                                                                                                            
  46 bus-46  100   1  1    1.12  -12.46 0.       0.        0.      0.       100.    1.       0.     0.      0.      0.        0                                                                                                                                                                            
  47 bus-47  100   1  1    1.129 -7.832 0.       0.        0.      0.       100.    1.       0.     0.      0.152   0.0537    0                                                                                                                                                                            
  48 bus-48  100   1  1    1.13  -7.812 0.       0.        0.      0.       100.    1.       0.     0.      0.138   0.052     0                                                                                                                                                                            
  49 bus-49  100   1  1    1.13  -7.803 0.       0.        0.      0.       100.    1.       0.     0.      0.      0.        0                                                                                                                                                                            
  50 bus-50  100   1  1    1.129 -7.822 0.       0.        0.      0.       100.    1.       0.     0.      0.      0.        0                                                                                                                                                                            
  51 bus-51  100   1  1    1.115 -11.24 58.45    28.44     0.      0.       100.    1.       0.     0.      0.      0.        0                                                                                                                                                                            
  52 bus-52  100   1  1    1.115 -12.19 0.       0.        0.      0.       100.    1.       0.     0.      0.23   -0.097     0                                                                                                                                                                            
  53 bus-53  100   1  1    1.115 -12.19 0.       0.        0.      0.       100.    1.       0.     0.      0.232  -0.097     0                                                                                                                                                                            
  54 bus-54  100   1  1    1.116 -12.82 0.       0.        0.      0.       100.    1.       0.     0.      0.188  -0.093     0                                                                                                                                                                            
  55 bus-55  100   1  1    1.116 -12.82 0.       0.        0.      0.       100.    1.       0.     0.      0.187  -0.092     0                                                                                                                                                                            
  56 bus-56  100   1  1    1.111 -11.04 0.       0.        0.      0.       100.    1.       0.     0.      0.186  -0.075     0                                                                                                                                                                            
  57 bus-57  100   1  1    1.111 -11.04 0.       0.        0.      0.       100.    1.       0.     0.      0.188  -0.07      0                                                                                                                                                                            
  58 bus-58  100   1  1    1.11  -10.87 76.3     -10.8     0.      0.       100.    1.       0.     0.      1.21    1.4       0                                                                                                                                                                            
  59 bus-59  100   1  1    1.119 -11.95 0.       0.        0.      0.       100.    1.       0.     0.      5.08    0.0863    0                                                                                                                                                                            
  60 bus-60  100   1  1  2 1.137 -7.114 0.       0.        51.     33.20466 100.    1.137   53.4  -20.4     2.01    1.65      0                                                                                                                                                                            
  61 bus-61  100   1  1    1.118 -12.92 0.       0.        0.      0.       100.    1.       0.     0.      0.      1.49      0                                                                                                                                                                            
  62 bus-62  100   1  1    1.06  -15.5  0.       0.        0.      0.       100.    1.       0.     0.      0.      0.        0                                                                                                                                                                            
  63 bus-63  100   1  1    1.113 -14.84 0.       0.        0.      0.       100.    1.       0.     0.      8.23    5.25      0                                                                                                                                                                            
  64 bus-64  100   1  1    1.102 -10.35 0.       0.        0.      0.       100.    1.       0.     0.      1.23   -0.26      0                                                                                                                                                                            
  65 bus-65  100   1  1    1.102 -10.36 0.       0.        0.      0.       100.    1.       0.     0.      1.24   -0.26      0                                                                                                                                                                            
  66 bus-66  100   1  1    1.12  0.0709 102.2    26.7      0.      0.       100.    1.       0.     0.      2.16   18.97      0                                                                                                                                                                            
  67 bus-67  100   1  1  2 1.09  -6.607 0.       0.        1486.   257.703  100.    1.09   891.6  -594.    18.21   12.8       0                                                                                                                                                                            
  68 bus-68  100   1  1    1.213 -32.1  0.       -7.41     0.      0.       100.    1.       0.     0.      0.563  -0.25      0                                                                                                                                                                            
  69 bus-69  100   1  1    1.101 -11.52 0.       0.        0.      0.       100.    1.       0.     0.      9.71   -1.44      0                                                                                                                                                                            
  70 bus-70  100   1  1    1.003 -15.28 0.       56.63     0.      0.       100.    1.       0.     0.      1.03   -0.86      0                                                                                                                                                                            
  71 bus-71  100   1  1    1.03  -15.37 0.       -21.2     0.      0.       100.    1.       0.     0.      1.06   -1.22      0                                                                                                                                                                            
  72 bus-72  100   1  1    1.104 -12.31 0.       0.        0.      0.       100.    1.       0.     0.     10.19    0.246     0                                                                                                                                                                            
  73 bus-73  100   1  1    1.099 -12.18 0.       0.        0.      0.       100.    1.       0.     0.     12.22    8.41      0                                                                                                                                                                            
  74 bus-74  100   1  1    1.099 -12.57 81.9     43.7      0.      0.       100.    1.       0.     0.      8.57    5.74      0                                                                                                                                                                            
  75 bus-75  100   1  1    1.121 -16.24 0.       0.        0.      0.       100.    1.       0.     0.      3.87    1.99      0                                                                                                                                                                            
  76 bus-76  100   1  1    1.021 4.4083 0.       0.        0.      0.       100.    1.       0.     0.     -6.67   -1.85      0                                                                                                                                                                            
  77 bus-77  100   1  1    0.988 5.5938 0.       0.        0.      0.       100.    1.       0.     0.      0.     -1.25      0                                                                                                                                                                            
  78 bus-78  100   1  1    1.075 -6.309 89.      26.8      0.      0.       100.    1.       0.     0.      0.      0.        0                                                                                                                                                                            
  79 bus-79  100   1  1  2 1.052 -10.49 9.1      3.        250.2   -17.1143 100.    1.052  150.1  -100.     2.38    0.271     0                                                                                                                                                                            
  80 bus-80  100   1  1  2 1.069 -9.178 17.1     5.        47.     -15.2749 100.    1.069   28.2  -18.8    -0.0008  0.299     0                                                                                                                                                                            
  81 bus-81  100   1  1    1.132 -26.95 82.2     -93.1     0.      0.       100.    1.       0.     0.      0.7    -0.47      0                                                                                                                                                                            
  82 bus-82  100   1  1  2 0.975 -19.65 2.1      1.1       70.     16.57036 100.    .97500  42.   -28.      1.11   -0.28      0                                                                                                                                                                            
  83 bus-83  100   1  1    1.1   -6.508 0.       0.        0.      0.       100.    1.       0.     0.      1.05   -0.0042    0                                                                                                                                                                            
  84 bus-84  100   1  1    1.117 -10.52 24.3     8.2       0.      0.       100.    1.       0.     0.      0.      0.        0                                                                                                                                                                            
  85 bus-85  100   1  1    1.119 -14.08 27.4     0.3       0.      0.       100.    1.       0.     0.      0.      0.        0                                                                                                                                                                            
  86 bus-86  100   1  1    1.06  -15.04 0.       0.        0.      0.       100.    1.       0.     0.      2.92   -0.22      0                                                                                                                                                                            
  87 bus-87  100   1  1    1.067 -8.281 0.       0.        0.      0.       100.    1.       0.     0.      0.377  -0.47      0                                                                                                                                                                            
  88 bus-88  100   1  1    1.111 -9.451 69.      20.9      0.      0.       100.    1.       0.     0.      0.      0.        0                                                                                                                                                                            
  89 bus-89  100   1  1  2 1.066 2.5588 0.6      0.2       673.    132.4303 100.    1.066  403.8  -269.     6.78    0.711     0                                                                                                                                                                            
  90 bus-90  100   1  1  2 0.95  -8.172 4.6      1.5       22.     -3.85018 100.    .95000  13.2   -8.8     0.295  -0.19      0                                                                                                                                                                            
  91 bus-91  100   1  1  2 1.    -10.31 0.       0.        64.     -2.52778 100.    1.      38.4  -25.6     0.193  -0.27      0                                                                                                                                                                            
  92 bus-92  100   1  1    0.956 -13.75 0.       31.02     0.      0.       100.    1.       0.     0.      0.434  -0.43      0                                                                                                                                                                            
  93 bus-93  100   1  1  2 1.    -3.042 100.4    73.2      700.    348.2778 100.    1.     766.   -520.     0.      0.        0                                                                                                                                                                            
  94 bus-94  100   1  1  2 1.02  -1.491 15.4     7.6       300.    19.26585 100.    1.02   288.   -192.     1.4    -1.41      0                                                                                                                                                                            
  95 bus-95  100   1  1  2 0.92  18.355 6.7      2.2       131.    10.4005  100.    .92000 108.6  -72.4     0.272  -0.58      0                                                                                                                                                                            
  96 bus-96  100   1  1  2 1.    -10.07 0.       0.        60.     20.52596 100.    1.      36.   -24.      0.478  -0.45      0                                                                                                                                                                            
  97 bus-97  100   1  1  2 0.967 -5.318 0.       0.        140.    45.02777 100.    .96700  84.   -56.      1.29   -1.77      0                                                                                                                                                                            
  98 bus-98  100   1  1  2 0.97  4.0393 0.       0.        426.    -36.9796 100.    .97000 255.6  -170.     0.821  -1.21      0                                                                                                                                                                            